xflr5 (6.01-1-ubuntu1) maverick; urgency=low

  * First release for Ubuntu 10.10
  * Fixed debian files. Somebody had magically renamed them to .txt files! 
    Renamed all the files in debian folder and fixed errors in them.
  * Fixed xflr5.pro. Install target was missing and the package was not installable. 
  * Package now builds and installs on Ubuntu 10.10
  * Verified that binary can be found from /usr/bin after installation.

 -- Karoliina Salminen <karoliina.t.salminen@gmail.com>  Tue, 26 Oct 2010 17:22:39 +0300

qflr5 (0.03b-ubuntu2) jaunty; urgency=low

  * Andre Deperrois fixed a bug which prevented polars from being stored
    during a foil batch analysis

 -- Karoliina Salminen <karoliina.t.salminen@gmail.com>  Thu, 29 Oct 2009 11:44:15 +0200

qflr5 (0.03b-ubuntu1) jaunty; urgency=low

  [Karoliina Salminen]
  * Built 0.03 for Ubuntu Jaunty
  [Andre Deperrois]
  * Added a form to evaluate the CoG and inertia of wings and bodies
  * Redefined the pitchnig moment and yawing moments for clarity - details in the guidelines ยง 5.16
  * Added an option to store oppoints in foil batch analysis 
  * Marked more sentences for translation
  * Corrected a crash bug which occurred when trying to run a biplane analysis without an elevator
  * Corrected Tail volume calculation - was missing a PI/180 coefficient ; no impact on results
  * Corrected lift calculation in Type 2 polars. The lift was calculated by two different 
    methods in separate parts of the code leading to incorrect results
  * Corrects bugs related to projected areas for aero coeff calculations
  * Corrected incorrect units in reference length for AVL export

 -- Karoliina Salminen <karoliina.t.salminen@gmail.com>  Mon, 26 Oct 2009 17:52:05 +0200

qflr5 (0.02b-ubuntu2) jaunty; urgency=low

  * Built latest trunk debian package

 -- Karoliina Salminen <karoliina.t.salminen@gmail.com>  Tue, 20 Oct 2009 10:51:41 +0300

qflr5 (0.02b-ubuntu1) jaunty; urgency=low

  * 0.02 beta for Ubuntu

 -- Karoliina Salminen <karoliina.t.salminen@gmail.com>  Fri, 04 Sep 2009 12:43:53 +0300

qflr5 (0.01b-ubuntu1) jaunty; urgency=low

  * 0.01 beta. First official release for Debian/Ubuntu

 -- Karoliina Salminen <karoliina.t.salminen@gmail.com>  Tue, 30 Jun 2009 12:27:36 +0300

qflr5 (5.0~svn103-1) jaunty; urgency=low
  
  * Ubuntu package for the for the QFLR5.
  * Svn updated to svn head.
  * Cleaned up the deb-package a bit to get it ready for being committed to svn.
  * Tested that the deb package compiles on Ubuntu Jaunty.

 -- Karoliina Salminen <karoliina.t.salminen@gmail.com>  Mon, 01 Jun 2009 13:11:17 +0300

qflr5 (5.0~svn101-1) jaunty; urgency=low

  * Upgraded to the latest trunk version

 -- Karoliina Salminen <karoliina.t.salminen@gmail.com>  Fri, 29 May 2009 15:26:12 +0300

qflr5 (5.0~svn91-1) unstable; urgency=low

  * Initial deb package created.

 -- Karoliina Salminen <karoliina.t.salminen@gmail.com>  Fri, 15 May 2009 11:54:02 +0300
